tests/data/short_circuit/dummy-test/sym_sc_output.json
{
  "node": [
    {
      "id": 1,
      "u_pu": 1.05,
      "u": 1.05,
      "u_angle": 1.05
    },
    {
      "id": 2,
      "u_pu": 0.84,
      "u": 1.05,
      "u_angle": 1.05
    },
    {
      "id": 3,
      "u_pu": 0.84,
      "u": 1.05,
      "u_angle": 1.05
    }
  ],
  "line": [
    {
      "id": 4,
      "i_from": 121.24355652982142,
      "i_from_angle": 121.24355652982142,
      "i_to": 121.24355652982142,
      "i_to_angle": 121.24355652982142
    }
  ],
  "link": [
    {
      "id": 5,
      "i_from": 121.24355652982142,
      "i_from_angle": 121.24355652982142,
      "i_to": 121.24355652982142,
      "i_to_angle": 121.24355652982142
    }
  ],
  "source": [
    {
      "id": 6,
      "i": 121.24355652982142,
      "i_angle": 121.24355652982142
    },
    {
      "id": 10,
      "i": 121.24355652982142,
      "i_angle": 121.24355652982142
    }
  ]
}